4OW0-lig
                    3D
 Structure written by MMmdl.
 57 60  0  0  1  0            999 V2000
  -33.5420   21.6040   31.7010 C   0  0  0  0  0  0
  -33.3450   22.7040   30.8070 C   0  0  0  0  0  0
  -33.7390   23.9700   31.1940 C   0  0  0  0  0  0
  -34.3610   24.1640   32.4770 C   0  0  0  0  0  0
  -34.5220   23.0920   33.3470 C   0  0  0  0  0  0
  -34.1380   21.7970   32.9650 C   0  0  0  0  0  0
  -33.5560   25.1130   30.2950 C   0  0  0  0  0  0
  -32.9790   24.9230   28.9920 C   0  0  0  0  0  0
  -32.5350   23.6130   28.5860 C   0  0  0  0  0  0
  -32.6900   22.5190   29.4600 C   0  0  0  0  0  0
  -32.1860   21.1420   28.9460 C   0  0  1  0  0  0
  -32.7390   20.9100   27.5550 C   0  0  0  0  0  0
  -30.6500   21.0940   28.9880 N   0  3  2  0  0  0
  -30.0480   19.8050   28.5460 C   0  0  0  0  0  0
  -28.5600   19.5380   28.8020 C   0  0  0  0  0  0
  -28.2460   19.9340   30.1640 C   0  0  2  0  0  0
  -28.5530   21.3790   30.4040 C   0  0  0  0  0  0
  -30.0350   21.6460   30.2230 C   0  0  0  0  0  0
  -26.7210   19.7020   30.4240 C   0  0  0  0  0  0
  -25.9400   19.9140   29.5170 O   0  0  0  0  0  0
  -26.2880   19.2400   31.6870 N   0  0  0  0  0  0
  -24.8790   19.0560   31.9580 C   0  0  0  0  0  0
  -24.4910   19.7040   33.3200 C   0  0  0  0  0  0
  -23.5470   19.1260   34.1500 C   0  0  0  0  0  0
  -23.2250   19.7430   35.3910 C   0  0  0  0  0  0
  -23.8820   20.9230   35.7870 C   0  0  0  0  0  0
  -24.8180   21.4810   34.9610 C   0  0  0  0  0  0
  -25.1420   20.8880   33.7190 C   0  0  0  0  0  0
  -25.4260   22.5820   35.3280 F   0  0  0  0  0  0
  -33.2330   20.6106   31.4112 H   0  0  0  0  0  0
  -34.7050   25.1457   32.7674 H   0  0  0  0  0  0
  -34.9460   23.2512   34.3274 H   0  0  0  0  0  0
  -34.2930   20.9549   33.6232 H   0  0  0  0  0  0
  -33.8549   26.1016   30.6107 H   0  0  0  0  0  0
  -32.8785   25.7612   28.3184 H   0  0  0  0  0  0
  -32.0851   23.4724   27.6143 H   0  0  0  0  0  0
  -32.5734   20.3651   29.6051 H   0  0  0  0  0  0
  -32.3927   19.9462   27.1819 H   0  0  0  0  0  0
  -33.8284   20.9150   27.5910 H   0  0  0  0  0  0
  -32.3944   21.7017   26.8897 H   0  0  0  0  0  0
  -30.3708   21.7468   28.2697 H   0  0  0  0  0  0
  -30.2570   19.6610   27.4860 H   0  0  0  0  0  0
  -30.6320   18.9814   28.9569 H   0  0  0  0  0  0
  -27.9609   20.1251   28.1060 H   0  0  0  0  0  0
  -28.3552   18.4748   28.6767 H   0  0  0  0  0  0
  -28.8250   19.3242   30.8575 H   0  0  0  0  0  0
  -27.9856   21.9918   29.7036 H   0  0  0  0  0  0
  -28.2565   21.6496   31.4174 H   0  0  0  0  0  0
  -30.5764   21.2726   31.0922 H   0  0  0  0  0  0
  -30.2146   22.7203   30.2649 H   0  0  0  0  0  0
  -26.9641   19.0355   32.4089 H   0  0  0  0  0  0
  -24.2933   19.5114   31.1595 H   0  0  0  0  0  0
  -24.6507   17.9905   31.9849 H   0  0  0  0  0  0
  -23.0574   18.2096   33.8551 H   0  0  0  0  0  0
  -22.4742   19.3059   36.0326 H   0  0  0  0  0  0
  -23.6454   21.3802   36.7364 H   0  0  0  0  0  0
  -25.8847   21.3385   33.0772 H   0  0  0  0  0  0
  1  2  1  0  0  0
  1  6  2  0  0  0
  1 30  1  0  0  0
  2  3  2  0  0  0
  2 10  1  0  0  0
  3  4  1  0  0  0
  3  7  1  0  0  0
  4  5  2  0  0  0
  4 31  1  0  0  0
  5  6  1  0  0  0
  5 32  1  0  0  0
  6 33  1  0  0  0
  7  8  2  0  0  0
  7 34  1  0  0  0
  8  9  1  0  0  0
  8 35  1  0  0  0
  9 10  2  0  0  0
  9 36  1  0  0  0
 10 11  1  0  0  0
 11 12  1  0  0  0
 11 13  1  0  0  0
 11 37  1  0  0  0
 12 38  1  0  0  0
 12 39  1  0  0  0
 12 40  1  0  0  0
 13 14  1  0  0  0
 13 18  1  0  0  0
 13 41  1  0  0  0
 14 15  1  0  0  0
 14 42  1  0  0  0
 14 43  1  0  0  0
 15 16  1  0  0  0
 15 44  1  0  0  0
 15 45  1  0  0  0
 16 17  1  0  0  0
 16 19  1  0  0  0
 16 46  1  0  0  0
 17 18  1  0  0  0
 17 47  1  0  0  0
 17 48  1  0  0  0
 18 49  1  0  0  0
 18 50  1  0  0  0
 19 20  2  0  0  0
 19 21  1  0  0  0
 21 22  1  0  0  0
 21 51  1  0  0  0
 22 23  1  0  0  0
 22 52  1  0  0  0
 22 53  1  0  0  0
 23 24  2  0  0  0
 23 28  1  0  0  0
 24 25  1  0  0  0
 24 54  1  0  0  0
 25 26  2  0  0  0
 25 55  1  0  0  0
 26 27  1  0  0  0
 26 56  1  0  0  0
 27 28  2  0  0  0
 27 29  1  0  0  0
 28 57  1  0  0  0
M  CHG  1  13   1
M  END
> <i_m_stars>
0

> <s_m_entry_id>
11351

> <s_m_entry_name>
Structure11351

> <s_pdb_PDB_format_version>
3.0

> <s_m_Source_Path>
/home/ranting/Data/work/plp/designset

> <s_m_Source_File>
4OW0_min_dock_lig_psd.pdb

> <i_m_Source_File_Index>
1

> <s_ppw_entry_id_backup>
11349

> <b_ppw_prepared>
1

> <s_ppw_prepared_with_version>
2017-2

> <b_ppw_assigned_bond_orders>
1

> <b_ppw_added_hydrogens>
1

> <b_ppw_treated_metals>
1

> <b_ppw_created_disulfur>
1

> <b_ppw_deleted_far_waters>
1

$$$$
